T1	Modifier 0 22	NATURAL SEAWATER-BASED
T2	Reagent 23 35	PRO99 MEDIUM
T3	Action 36 43	Prepare
T4	Device 46 65	glass filter funnel
T5	Location 70 75	flask
T6	Action 79 87	cleaning
T7	Reagent 93 97	acid
T8	Reagent 102 115	Milli-Q water
T9	Action 117 123	Filter
T10	Modifier 124 127	raw
T11	Reagent 128 136	seawater
T12	Size 145 149	47mm
T13	Device 150 162	Whatman GF/F
T14	Action 163 170	stacked
T15	Location 174 177	top
T16	Size 183 193	47mm 0.2 m
T17	Device 194 214	polycarbonate filter
T18	Action 216 225	Autoclave
T19	Reagent 226 234	seawater
T20	Location 240 253	Teflon bottle
T21	Time 255 265	60 minutes
T22	Amount 270 272	2L
T23	Action 284 288	cool
T24	Time 289 298	overnight
T25	Action 300 307	Prepare
T26	Concentration 308 312	0.5M
T27	Reagent 313 327	NH4Cl solution
T28	Action 329 336	Prepare
T29	Concentration 337 343	0.025M
T30	Reagent 344 364	NaH2PO4 H2O solution
T31	Action 366 373	Prepare
T32	Reagent 374 401	primary trace metal stocks.
T33	Action 402 409	Prepare
T34	Reagent 410 436	trace metal working stock.
T35	Action 440 447	make up
T36	Reagent 452 457	media
T37	Action 459 462	add
T38	Amount 463 480	following volumes
T39	Modifier 484 491	sterile
T40	Reagent 492 501	nutrients
T41	Reagent 506 523	trace metal stock
T42	Amount 527 536	one liter
T43	Modifier 544 554	autoclaved
T44	Reagent 555 563	seawater
T45	Modifier 565 587	NutrientVolumeFiltered
T46	Reagent 588 596	Seawater
T47	Amount 597 609	1000.0mL0.5M
T48	Reagent 610 615	NH4Cl
T49	Amount 616 627	1.6mL0.025M
T50	Reagent 628 639	NaH2PO4 H2O
T51	Amount 640 650	2.0mLTrace
T52	Reagent 651 670	metal working stock
T53	Amount 671 676	100 L
T54	Action 678 683	Store
T55	Temperature 687 703	room temperature
T56	Modifier 708 713	up to
T57	Time 714 723	one month
